8
Model[1]: Jmol 14.29.46  2019-06-03 12:50
C       1.42090      0.41220      0.00000
C      -0.01150     -0.05590     -0.00000
O      -1.01060      0.84050     -0.00000
O      -0.26070     -1.23820     -0.00000
H       1.44710      1.50190     -0.00000
H       1.92590      0.03660      0.89000
H       1.92590      0.03660     -0.89000
H      -1.91271      0.49250      0.00000
