14
Model[1]: Jmol 14.29.46  2019-06-03 12:50
C      -2.43850      0.69120     -0.01330
C      -2.43850     -0.69120     -0.01330
C      -1.24340     -1.38710      0.00220
C      -0.04010     -0.69810      0.01780
C      -0.04010      0.69810      0.01780
C      -1.24340      1.38710      0.00220
S       1.48420      1.58190      0.03820
S       1.48420     -1.58190      0.03810
H      -3.37470      1.22950     -0.02990
H      -3.37470     -1.22950     -0.02510
H      -1.24730     -2.46710      0.00241
H      -1.24730      2.46710      0.00220
H       1.76340      1.73360     -1.26870
H       1.76310     -1.73400     -1.26880
