10
Model[1]: Eranjan 2020-02-19 9:40
C        0.505802196   0.569123823   0.000000000
C       -0.505802196  -0.569123823   0.000000000
S       -2.188794964   0.159852747  -0.000000000
S        2.188794964  -0.159852747  -0.000000000
H        0.377290590   1.196297772  -0.896505891
H        0.377290590   1.196297772   0.896505891
H       -0.377290590  -1.196297772  -0.896505891
H       -0.377290590  -1.196297772   0.896505891
H       -2.861180120  -1.015608594  -0.000000000
H        2.861180120   1.015608594  -0.000000000