14
Model[1]: Eranjan 2020-03-13 12:50
C        0.697432851  -1.209162341  -0.005247329
C       -0.697542436  -1.208973382  -0.005638892
C       -1.403423684  -0.000051650   0.007847296
C       -0.697659164   1.209062525  -0.006664448
C        0.697519789   1.209224286  -0.006584205
C        1.403342198  -0.000010579   0.008319606
S        3.195037363   0.000233337  -0.055256340
S       -3.195201260   0.000061366  -0.055891891
H        1.247951130  -2.153858804  -0.020443719
H       -1.248043992  -2.153964059  -0.021443721
H       -1.248044979   2.153879230  -0.022459890
H        1.247907841   2.153792178  -0.022659440
H        3.398931133  -0.002068945   1.285682775
H       -3.399206790  -0.000373162   1.285040198