54
Model[1]: Jmol 14.29.46  2019-06-03 12:50
C     -10.13990      3.03480     -0.28781
C      -9.43180      1.81920      0.31360
C      -8.03610      1.68720     -0.29911
C      -7.32790      0.47160      0.30220
C      -5.93220      0.33960     -0.31050
C      -5.22410     -0.87610      0.29090
C      -3.82830     -1.00800     -0.32191
C      -3.12020     -2.22370      0.27950
C      -1.74550     -2.35370     -0.32400
C      -0.69130     -2.40260      0.45220
C       0.68340     -2.53250     -0.15140
C       1.57180     -1.39380      0.35351
C       2.96750     -1.52580     -0.25920
C       3.85590     -0.38700      0.24571
C       5.25160     -0.51900     -0.36701
C       6.14000      0.61980      0.13790
C       7.53580      0.48780     -0.47490
C       8.41080      1.60940      0.02240
O       7.96390      2.43010      0.78840
O       9.68660      1.69670     -0.38551
H      -9.56260      3.93430     -0.07370
H     -10.22740      2.90740     -1.36680
H     -11.13430      3.12880      0.14880
H      -9.34430      1.94660      1.39260
H     -10.00910      0.91971      0.09960
H      -8.12350      1.55980     -1.37810
H      -7.45880      2.58670     -0.08510
H      -7.24050      0.59900      1.38120
H      -7.90520     -0.42790      0.08820
H      -6.01960      0.21220     -1.38950
H      -5.35490      1.23900     -0.09650
H      -5.13660     -0.74860      1.36990
H      -5.80140     -1.77550      0.07680
H      -3.91580     -1.13550     -1.40080
H      -3.25100     -0.10860     -0.10780
H      -3.03280     -2.09630      1.35850
H      -3.69750     -3.12310      0.06550
H      -1.62930     -2.40650     -1.39650
H      -0.80750     -2.34970      1.52460
H       1.11860     -3.48890      0.13870
H       0.60960     -2.48150     -1.23770
H       1.13660     -0.43750      0.06350
H       1.64560     -1.44480      1.43980
H       3.40270     -2.48210      0.03090
H       2.89370     -1.47470     -1.34550
H       3.42070      0.56930     -0.04440
H       3.92970     -0.43811      1.33200
H       5.68690     -1.47530     -0.07700
H       5.17790     -0.46790     -1.45330
H       5.70480      1.57610     -0.15220
H       6.21380      0.56870      1.22420
H       7.97100     -0.46850     -0.18480
H       7.46200      0.53880     -1.56120
H      10.20880      2.43340     -0.03940
